
 ANSYS Multiphysics                                


 *------------------------------------------------------------------*
 |                                                                  |
 |   W E L C O M E   T O   T H E   A N S Y S (R)  P R O G R A M     |
 |                                                                  |
 *------------------------------------------------------------------*




 ***************************************************************
 *            ANSYS Release 17.2     LEGAL NOTICES             *
 ***************************************************************
 *                                                             *
 * Copyright 2016 SAS IP, Inc.  All rights reserved.           *
 * Unauthorized use, distribution or duplication is            *
 * prohibited.                                                 *
 *                                                             *
 * Ansys is a registered trademark of ANSYS, Inc. or its       *
 * subsidiaries in the United States or other countries.       *
 * See the ANSYS, Inc. online documentation or the ANSYS, Inc. *
 * documentation CD or online help for the complete Legal      *
 * Notice.                                                     *
 *                                                             *
 ***************************************************************
 *                                                             *
 * THIS ANSYS SOFTWARE PRODUCT AND PROGRAM DOCUMENTATION       *
 * INCLUDE TRADE SECRETS AND CONFIDENTIAL AND PROPRIETARY      *
 * PRODUCTS OF ANSYS, INC., ITS SUBSIDIARIES, OR LICENSORS.    *
 * The software products and documentation are furnished by    *
 * ANSYS, Inc. or its subsidiaries under a software license    *
 * agreement that contains provisions concerning               *
 * non-disclosure, copying, length and nature of use,          *
 * compliance with exporting laws, warranties, disclaimers,    *
 * limitations of liability, and remedies, and other           *
 * provisions.  The software products and documentation may be *
 * used, disclosed, transferred, or copied only in accordance  *
 * with the terms and conditions of that software license      *
 * agreement.                                                  *
 *                                                             *
 * ANSYS, Inc. is a UL registered                              *
 * ISO 9001:2008 company.                                      *
 *                                                             *
 ***************************************************************
 *                                                             *
 * This product is subject to U.S. laws governing export and   *
 * re-export.                                                  *
 *                                                             *
 * For U.S. Government users, except as specifically granted   *
 * by the ANSYS, Inc. software license agreement, the use,     *
 * duplication, or disclosure by the United States Government  *
 * is subject to restrictions stated in the ANSYS, Inc.        *
 * software license agreement and FAR 12.212 (for non-DOD      *
 * licenses).                                                  *
 *                                                             *
 ***************************************************************

 Release 17.2
     
 Point Releases and Patches installed:   
     
 ANSYS, Inc. Products Release 17.2   
 ANSYS Mechanical Products Release 17.2  
 ANSYS Customization Files for User Programmable Features Release 17.2   
 ANSYS Autodyn Release 17.2  
 ANSYS LS-DYNA Release 17.2  
 ANSYS AIM Release 17.2  
 ANSYS CFX (includes ANSYS CFD-Post) Release 17.2
 ANSYS Fluent (includes ANSYS CFD-Post) Release 17.2 
 ANSYS TurboGrid Release 17.2
 ANSYS Polyflow (includes ANSYS CFD-Post) Release 17.2   
 ANSYS CFD-Post only Release 17.2
 ANSYS Forte Release 17.2
 ANSYS Chemkin Release 17.2  
 ANSYS ICEM CFD Release 17.2 
 ANSYS Aqwa Release 17.2 
 ANSYS Viewer Release 17.2   
 ANSYS Composite PrepPost Release 17.2   
 ANSYS Icepak (includes ANSYS CFD-Post) Release 17.2 
 ANSYS Remote Solve Manager Standalone Services Release 17.2 
 AutoCAD Release 17.2
 ACIS Release 17.2   
 Catia, Version 4 Release 17.2   
 Catia, Version 5 Release 17.2   
 Catia, Version 6 Release 17.2   
 Creo Elements/Direct Modeling Release 17.2  
 Inventor Release 17.2   
 JTOpen Release 17.2 
 NX Release 17.2 
 Parasolid Release 17.2  
 Creo Parametric (formerly Pro/ENGINEER) Release 17.2
 Solid Edge Release 17.2 
 SolidWorks Release 17.2 
 ANSYS, Inc. License Manager Release 17.2


          *****  ANSYS COMMAND LINE ARGUMENTS  *****
  BATCH MODE REQUESTED (-b)    = NOLIST
  INPUT FILE COPY MODE (-c)    = COPY
  DISTRIBUTED MEMORY PARALLEL REQUESTED
       2 PARALLEL PROCESSES REQUESTED WITH SINGLE THREAD PER PROCESS
    TOTAL OF     2 CORES REQUESTED
  MPI OPTION                   = INTELMPI
  INPUT FILE NAME              = C:\Users\VISHAL\AppData\Local\Temp\WB_LAPTOP-VISHAL_VISHAL_2428_2\_ProjectScratch\Scr3E25\dummy.dat
  OUTPUT FILE NAME             = C:\Users\VISHAL\AppData\Local\Temp\WB_LAPTOP-VISHAL_VISHAL_2428_2\_ProjectScratch\Scr3E25\solve.out
  START-UP FILE MODE           = NOREAD
  STOP FILE MODE               = NOREAD

 RELEASE= Release 17.2         BUILD= 17.2      UP20160718   VERSION=WINDOWS x64 
 CURRENT JOBNAME=file0  20:21:28  MAY 28, 2021 CP=      0.609


 PARAMETER _DS_PROGRESS =     999.0000000    

 /INPUT FILE= ds.dat  LINE=       0



 *** NOTE ***                            CP =       0.703   TIME= 20:21:28
 The /CONFIG,NOELDB command is not valid in a Distributed ANSYS          
 solution.  Command is ignored.                                          

 *GET  _WALLSTRT  FROM  ACTI  ITEM=TIME WALL  VALUE=  20.3577778    

 TITLE= 
 unsaved_project--Static Structural (B5)                                       


 SET PARAMETER DIMENSIONS ON  _WB_PROJECTSCRATCH_DIR
  TYPE=STRI  DIMENSIONS=      248        1        1

 PARAMETER _WB_PROJECTSCRATCH_DIR(1) = C:\Users\VISHAL\AppData\Local\Temp\WB_LAPTOP-VISHAL_VISHAL_2428_2\_ProjectScratch\Scr3E25\

 SET PARAMETER DIMENSIONS ON  _WB_SOLVERFILES_DIR
  TYPE=STRI  DIMENSIONS=      248        1        1

 PARAMETER _WB_SOLVERFILES_DIR(1) = C:\Users\VISHAL\AppData\Local\Temp\WB_LAPTOP-VISHAL_VISHAL_2428_2\unsaved_project_files\dp0\SYS\MECH\

 SET PARAMETER DIMENSIONS ON  _WB_USERFILES_DIR
  TYPE=STRI  DIMENSIONS=      248        1        1

 PARAMETER _WB_USERFILES_DIR(1) = C:\Users\VISHAL\AppData\Local\Temp\WB_LAPTOP-VISHAL_VISHAL_2428_2\unsaved_project_files\user_files\
 --- Data in consistent NMM units. See Solving Units in the help system for more

 MPA UNITS SPECIFIED FOR INTERNAL    
  LENGTH      = MILLIMETERS (mm)
  MASS        = TONNE (Mg)
  TIME        = SECONDS (sec)
  TEMPERATURE = CELSIUS (C)
  TOFFSET     = 273.0
  FORCE       = NEWTON (N)
  HEAT        = MILLIJOULES (mJ)

 INPUT  UNITS ARE ALSO SET TO MPA 

 *** ANSYS - ENGINEERING ANALYSIS SYSTEM  RELEASE Release 17.2     17.2     ***
 DISTRIBUTED ANSYS Multiphysics                                

 00000000  VERSION=WINDOWS x64   20:21:28  MAY 28, 2021 CP=      0.703

 unsaved_project--Static Structural (B5)                                       



          ***** ANSYS ANALYSIS DEFINITION (PREP7) *****
 *********** Nodes for the whole assembly ***********
 *********** Elements for Body 1 "MiniStepper 2" ***********
 *********** Elements for Body 2 "MiniStepper 1" ***********
 *********** Elements for Body 3 "MiniStepper 3" ***********
 *********** Elements for Body 4 "Stepper 2" ***********
 *********** Elements for Body 5 "End Link" ***********
 *********** Elements for Body 6 "Base" ***********
 *********** Elements for Body 7 "End Effector" ***********
 *********** Elements for Body 8 "Stepper 3" ***********
 *********** Elements for Body 9 "Stepper 1" ***********
 *********** Elements for Body 10 "Body" ***********
 *********** Elements for Body 11 "Link 3" ***********
 *********** Elements for Body 12 "Link 2" ***********
 *********** Elements for Body 13 "Link 1" ***********
 *********** Send User Defined Coordinate System(s) ***********
 *********** Set Reference Temperature ***********
 *********** Send Materials ***********
 *********** Create Contact "Contact Region" ***********
             Real Constant Set For Above Contact Is 15 & 14
 *********** Create Contact "Contact Region 3" ***********
             Real Constant Set For Above Contact Is 17 & 16
 *********** Create Contact "Contact Region 6" ***********
             Real Constant Set For Above Contact Is 19 & 18
 *********** Create Contact "Contact Region 7" ***********
             Real Constant Set For Above Contact Is 21 & 20
 *********** Create Contact "Contact Region 8" ***********
             Real Constant Set For Above Contact Is 23 & 22
 *********** Create Contact "Contact Region 9" ***********
             Real Constant Set For Above Contact Is 25 & 24
 *********** Create Contact "Contact Region 11" ***********
             Real Constant Set For Above Contact Is 27 & 26
 *********** Create Contact "Contact Region 12" ***********
             Real Constant Set For Above Contact Is 29 & 28
 *********** Create Contact "Contact Region 13" ***********
             Real Constant Set For Above Contact Is 31 & 30
 *********** Create Contact "Contact Region 14" ***********
             Real Constant Set For Above Contact Is 33 & 32
 *********** Create Contact "Contact Region 15" ***********
             Real Constant Set For Above Contact Is 35 & 34
 *********** Create Contact "Contact Region 16" ***********
             Real Constant Set For Above Contact Is 37 & 36
 *********** Fixed Supports ***********
 *********** Define Force Using Surface Effect Elements ***********
 *********** Define Force Using Surface Effect Elements ***********
 *********** Create Remote Point "Internal Remote Point" ***********
 *********** Create Remote Point "Internal Remote Point 2" ***********
 *********** Create Remote Point "Internal Remote Point 3" ***********
 *********** Create Remote Point "Internal Remote Point 4" ***********
 *********** Create Remote Point "Internal Remote Point 5" ***********
 *********** Create Remote Point "Internal Remote Point 6" ***********
 *********** Create Remote Point "Internal Remote Point 7" ***********
 *********** Create Remote Point "Internal Remote Point 8" ***********
 *********** Create Remote Point "Internal Remote Point 9" ***********
 *********** Create Remote Point "Internal Remote Point 10" ***********
 *********** Create Remote Point "Internal Remote Point 11" ***********
 *********** Create Remote Point "Internal Remote Point 12" ***********
 *********** Create Remote Point "Internal Remote Point 14" ***********
 *********** Create Remote Point "Internal Remote Point 15" ***********
 *********** Create Remote Point "Internal Remote Point 16" ***********
 *********** Create Remote Point "Internal Remote Point 17" ***********
 *********** Create Remote Point "Internal Remote Point 18" ***********
 *********** Create Remote Point "Internal Remote Point 19" ***********
 *********** Create Remote Point "Internal Remote Point 20" ***********
 *********** Create Remote Point "Internal Remote Point 21" ***********
 *********** Create Remote Point "Internal Remote Point 22" ***********
 *********** Create Joint "Revolute - Base To Body" ***********
             Real Constant Set For Above Joint Is 82
 *********** Create Joint "Revolute - Body To Link 1" ***********
             Real Constant Set For Above Joint Is 83
 *********** Create Joint "Revolute - Link 1 To Link 2" ***********
             Real Constant Set For Above Joint Is 84
 *********** Create Joint "Revolute - Link 2 To Link 3" ***********
             Real Constant Set For Above Joint Is 85
 *********** Create Joint "Revolute - Link 3 To End Link" ***********
             Real Constant Set For Above Joint Is 86
 *********** Create Joint "Revolute - End Link To End Effector" ***********
             Real Constant Set For Above Joint Is 87
 *********** Create Joint "Fixed - Ground To Base" ***********
             Real Constant Set For Above Joint Is 88
 *********** Create Joint "Fixed - Stepper 1 To Body" ***********
             Real Constant Set For Above Joint Is 89
 *********** Create Joint "Fixed - Stepper 2 To Body" ***********
             Real Constant Set For Above Joint Is 90
 *********** Create Joint "Fixed - Stepper 3 To Link 2" ***********
             Real Constant Set For Above Joint Is 91
 *********** Create Joint "Fixed - Multiple To Link 2" ***********
             Real Constant Set For Above Joint Is 92
 *********** Create Joint Drivers **********


 ***** ROUTINE COMPLETED *****  CP =         1.625


 --- Number of total nodes = 89985
 --- Number of contact elements = 5682
 --- Number of spring elements = 0
 --- Number of bearing elements = 0
 --- Number of solid elements = 50610
 --- Number of total elements = 56324

 *GET  _WALLBSOL  FROM  ACTI  ITEM=TIME WALL  VALUE=  20.3577778    
 ****************************************************************************
 *************************    SOLUTION       ********************************
 ****************************************************************************

 *****  ANSYS SOLUTION ROUTINE  *****


 PERFORM A STATIC ANALYSIS
  THIS WILL BE A NEW ANALYSIS

 USE A MAXIMUM OF     1 EQUILIBRIUM ITERATIONS EACH SUBSTEP

 *** WARNING ***                         CP =       1.656   TIME= 20:21:28
 Using 1 iteration per substep may result in unconverged solutions for   
 nonlinear analysis and the program may not indicate divergence in this  
 case.  Check your results.                                              

 DO NOT USE PREDICTOR METHOD FOR  ALL DEGREES OF FREEDOM

 USE PRECONDITIONED CONJUGATE GRADIENT SOLVER
  CONVERGENCE TOLERANCE = 1.00000E-08
  MAXIMUM ITERATION     = NumNode*DofPerNode*  1.0000    

 CONTACT INFORMATION PRINTOUT LEVEL       1

 DO NOT COMBINE ELEMENT MATRIX FILES (.emat) AFTER DISTRIBUTED PARALLEL SOLUTION

 DO NOT COMBINE ELEMENT SAVE DATA FILES (.esav) AFTER DISTRIBUTED PARALLEL SOLUTION

 NLDIAG: Nonlinear diagnostics CONT option is set to ON. 
         Writing frequency : each ITERATION.

 DO NOT SAVE ANY RESTART FILES AT ALL
 ****************************************************
 ******************* SOLVE FOR LS 1 ****************

 SELECT       FOR ITEM=TYPE COMPONENT=    
  IN RANGE        38 TO         38 STEP          1

         25  ELEMENTS (OF      56324  DEFINED) SELECTED BY  ESEL  COMMAND.

 SELECT      ALL NODES HAVING ANY ELEMENT IN ELEMENT SET.

       68 NODES (OF    89985  DEFINED) SELECTED FROM
       25 SELECTED ELEMENTS BY NSLE COMMAND.

 SPECIFIED SURFACE LOAD PRES FOR ALL SELECTED ELEMENTS  LKEY =  1   KVAL = 1
      SET ACCORDING TO TABLE PARAMETER = _LOADVARI224X                   

 SPECIFIED SURFACE LOAD PRES FOR ALL SELECTED ELEMENTS  LKEY =  2   KVAL = 1
      SET ACCORDING TO TABLE PARAMETER = _LOADVARI224Y                   

 SPECIFIED SURFACE LOAD PRES FOR ALL SELECTED ELEMENTS  LKEY =  3   KVAL = 1
      SET ACCORDING TO TABLE PARAMETER = _LOADVARI224Z                   

 SELECT       FOR ITEM=TYPE COMPONENT=    
  IN RANGE        39 TO         39 STEP          1

        558  ELEMENTS (OF      56324  DEFINED) SELECTED BY  ESEL  COMMAND.

 SELECT      ALL NODES HAVING ANY ELEMENT IN ELEMENT SET.

     1209 NODES (OF    89985  DEFINED) SELECTED FROM
      558 SELECTED ELEMENTS BY NSLE COMMAND.

 SPECIFIED SURFACE LOAD PRES FOR ALL SELECTED ELEMENTS  LKEY =  1   KVAL = 1
      SET ACCORDING TO TABLE PARAMETER = _LOADVARI226X                   

 SPECIFIED SURFACE LOAD PRES FOR ALL SELECTED ELEMENTS  LKEY =  2   KVAL = 1
      SET ACCORDING TO TABLE PARAMETER = _LOADVARI226Y                   

 SPECIFIED SURFACE LOAD PRES FOR ALL SELECTED ELEMENTS  LKEY =  3   KVAL = 1
      SET ACCORDING TO TABLE PARAMETER = _LOADVARI226Z                   

 ALL SELECT   FOR ITEM=NODE COMPONENT=    
  IN RANGE         1 TO      89985 STEP          1

      89985  NODES (OF      89985  DEFINED) SELECTED BY NSEL  COMMAND.

 ALL SELECT   FOR ITEM=ELEM COMPONENT=    
  IN RANGE         1 TO      56346 STEP          1

      56324  ELEMENTS (OF      56324  DEFINED) SELECTED BY  ESEL  COMMAND.
 *********** Create Acceleration ***********

 SET PARAMETER DIMENSIONS ON  _ACELX TYPE=TABL  DIMENSIONS=     2     1     1
  TIME                        

 PARAMETER _ACELX(1,0,1) =     0.000000000    

 PARAMETER _ACELX(2,0,1) =     1.000000000    

 PARAMETER _ACELX(1,1,1) =     0.000000000    

 PARAMETER _ACELX(2,1,1) =     0.000000000    

 SET PARAMETER DIMENSIONS ON  _ACELY TYPE=TABL  DIMENSIONS=     2     1     1
  TIME                        

 PARAMETER _ACELY(1,0,1) =     0.000000000    

 PARAMETER _ACELY(2,0,1) =     1.000000000    

 PARAMETER _ACELY(1,1,1) =     0.000000000    

 PARAMETER _ACELY(2,1,1) =     0.000000000    

 SET PARAMETER DIMENSIONS ON  _ACELZ TYPE=TABL  DIMENSIONS=     2     1     1
  TIME                        

 PARAMETER _ACELZ(1,0,1) =     0.000000000    

 PARAMETER _ACELZ(2,0,1) =     1.000000000    

 PARAMETER _ACELZ(1,1,1) =     0.000000000    

 PARAMETER _ACELZ(2,1,1) =     9806.650000    
 
 ACELX IS SET ACCORDING TO TABLE PARAMETER = _ACELX  
 ACELY IS SET ACCORDING TO TABLE PARAMETER = _ACELY  
 ACELZ IS SET ACCORDING TO TABLE PARAMETER = _ACELZ  

 PRINTOUT RESUMED BY /GOP

 SELECT       FOR ITEM=TYPE COMPONENT=    
  IN RANGE        86 TO         86 STEP          1

          1  ELEMENTS (OF      56324  DEFINED) SELECTED BY  ESEL  COMMAND.

 APPLIED BOUNDARY CONDITIONS OR FORCES FOR JOINT ELEMENTS

SPECIFIED VALUE FOR ALL SELECTED ELEMENTS
FORCE, MOMENT, DISPLACEMENT OR ROTATION LABEL = MZ  
SET ACCORDING TO TABLE PARAMETER              = _LOADVARI221                    

 ALL SELECT   FOR ITEM=ELEM COMPONENT=    
  IN RANGE         1 TO      56346 STEP          1

      56324  ELEMENTS (OF      56324  DEFINED) SELECTED BY  ESEL  COMMAND.

 SELECT       FOR ITEM=TYPE COMPONENT=    
  IN RANGE        83 TO         83 STEP          1

          1  ELEMENTS (OF      56324  DEFINED) SELECTED BY  ESEL  COMMAND.

 APPLIED BOUNDARY CONDITIONS OR FORCES FOR JOINT ELEMENTS

SPECIFIED VALUE FOR ALL SELECTED ELEMENTS
FORCE, MOMENT, DISPLACEMENT OR ROTATION LABEL = MZ  
SET ACCORDING TO TABLE PARAMETER              = _LOADVARI222                    

 ALL SELECT   FOR ITEM=ELEM COMPONENT=    
  IN RANGE         1 TO      56346 STEP          1

      56324  ELEMENTS (OF      56324  DEFINED) SELECTED BY  ESEL  COMMAND.

 SELECT       FOR ITEM=TYPE COMPONENT=    
  IN RANGE        84 TO         84 STEP          1

          1  ELEMENTS (OF      56324  DEFINED) SELECTED BY  ESEL  COMMAND.

 APPLIED BOUNDARY CONDITIONS OR FORCES FOR JOINT ELEMENTS

SPECIFIED VALUE FOR ALL SELECTED ELEMENTS
FORCE, MOMENT, DISPLACEMENT OR ROTATION LABEL = MZ  
SET ACCORDING TO TABLE PARAMETER              = _LOADVARI223                    

 ALL SELECT   FOR ITEM=ELEM COMPONENT=    
  IN RANGE         1 TO      56346 STEP          1

      56324  ELEMENTS (OF      56324  DEFINED) SELECTED BY  ESEL  COMMAND.

 USE       1 SUBSTEPS INITIALLY THIS LOAD STEP FOR ALL  DEGREES OF FREEDOM
 FOR AUTOMATIC TIME STEPPING:
   USE      1 SUBSTEPS AS A MAXIMUM
   USE      1 SUBSTEPS AS A MINIMUM

 TIME=  1.0000    

 ERASE THE CURRENT DATABASE OUTPUT CONTROL TABLE.


 WRITE ALL  ITEMS TO THE DATABASE WITH A FREQUENCY OF NONE
   FOR ALL APPLICABLE ENTITIES

 WRITE NSOL ITEMS TO THE DATABASE WITH A FREQUENCY OF ALL 
   FOR ALL APPLICABLE ENTITIES

 WRITE RSOL ITEMS TO THE DATABASE WITH A FREQUENCY OF ALL 
   FOR ALL APPLICABLE ENTITIES

 WRITE STRS ITEMS TO THE DATABASE WITH A FREQUENCY OF ALL 
   FOR ALL APPLICABLE ENTITIES

 WRITE EPEL ITEMS TO THE DATABASE WITH A FREQUENCY OF ALL 
   FOR ALL APPLICABLE ENTITIES

 WRITE EPPL ITEMS TO THE DATABASE WITH A FREQUENCY OF ALL 
   FOR ALL APPLICABLE ENTITIES

 PRINTOUT RESUMED BY /GOP

 WRITE MISC ITEMS TO THE DATABASE WITH A FREQUENCY OF ALL 
   FOR THE ENTITIES DEFINED BY COMPONENT _ELMISC 

 NONLINEAR STABILIZATION CONTROL:
 KEY=OFF 


 *GET  ANSINTER_  FROM  ACTI  ITEM=INT        VALUE=  0.00000000    

 *IF  ANSINTER_                         ( =   0.00000     )  NE  
      0                                 ( =   0.00000     )  THEN    

 *ENDIF

 *****  ANSYS SOLVE    COMMAND  *****

 *** WARNING ***                         CP =       1.734   TIME= 20:21:28
 Element shape checking is currently inactive.  Issue SHPP,ON or         
 SHPP,WARN to reactivate, if desired.                                    

 *** WARNING ***                         CP =       1.797   TIME= 20:21:29
 MPC184 elements are being used in the current analysis and the          
 NLGEOM,ON command has not been used.  Thus, only linearized behavior    
 will be considered.  If finite rotation and large deflection effects    
 are to be considered, please use the NLGEOM,ON command.                 

 *** WARNING ***                         CP =       1.797   TIME= 20:21:29
 The sparse solver must be used if any current technology elements with  
 u-P formulation or MPC184 elements using Lagrangian multiplier are      
 included in the model.  The equation solver option has been switched    
 to the sparse solver.                                                   

 *** NOTE ***                            CP =       1.891   TIME= 20:21:29
 The model data was checked and warning messages were found.             
  Please review output or errors file (                                  
 C:\Users\VISHAL\AppData\Local\Temp\WB_LAPTOP-VISHAL_VISHAL_2428_2\_Proj 
 jectScratch\Scr3E25\file0.err ) for these warning messages.             

 *** SELECTION OF ELEMENT TECHNOLOGIES FOR APPLICABLE ELEMENTS ***
      --- GIVE SUGGESTIONS AND RESET THE KEY OPTIONS ---

 ELEMENT TYPE    1 IS SOLID187. IT IS NOT ASSOCIATED WITH FULLY INCOMPRESSIBLE
 HYPERELASTIC MATERIALS. NO SUGGESTION IS AVAILABLE AND NO RESETTING IS NEEDED.

 ELEMENT TYPE    2 IS SOLID187. IT IS NOT ASSOCIATED WITH FULLY INCOMPRESSIBLE
 HYPERELASTIC MATERIALS. NO SUGGESTION IS AVAILABLE AND NO RESETTING IS NEEDED.

 ELEMENT TYPE    3 IS SOLID187. IT IS NOT ASSOCIATED WITH FULLY INCOMPRESSIBLE
 HYPERELASTIC MATERIALS. NO SUGGESTION IS AVAILABLE AND NO RESETTING IS NEEDED.

 ELEMENT TYPE    4 IS SOLID187. IT IS NOT ASSOCIATED WITH FULLY INCOMPRESSIBLE
 HYPERELASTIC MATERIALS. NO SUGGESTION IS AVAILABLE AND NO RESETTING IS NEEDED.

 ELEMENT TYPE    5 IS SOLID187. IT IS NOT ASSOCIATED WITH FULLY INCOMPRESSIBLE
 HYPERELASTIC MATERIALS. NO SUGGESTION IS AVAILABLE AND NO RESETTING IS NEEDED.

 ELEMENT TYPE    6 IS SOLID187. IT IS NOT ASSOCIATED WITH FULLY INCOMPRESSIBLE
 HYPERELASTIC MATERIALS. NO SUGGESTION IS AVAILABLE AND NO RESETTING IS NEEDED.

 ELEMENT TYPE    7 IS SOLID187. IT IS NOT ASSOCIATED WITH FULLY INCOMPRESSIBLE
 HYPERELASTIC MATERIALS. NO SUGGESTION IS AVAILABLE AND NO RESETTING IS NEEDED.

 ELEMENT TYPE    8 IS SOLID187. IT IS NOT ASSOCIATED WITH FULLY INCOMPRESSIBLE
 HYPERELASTIC MATERIALS. NO SUGGESTION IS AVAILABLE AND NO RESETTING IS NEEDED.

 ELEMENT TYPE    9 IS SOLID187. IT IS NOT ASSOCIATED WITH FULLY INCOMPRESSIBLE
 HYPERELASTIC MATERIALS. NO SUGGESTION IS AVAILABLE AND NO RESETTING IS NEEDED.

 ELEMENT TYPE   10 IS SOLID187. IT IS NOT ASSOCIATED WITH FULLY INCOMPRESSIBLE
 HYPERELASTIC MATERIALS. NO SUGGESTION IS AVAILABLE AND NO RESETTING IS NEEDED.

 ELEMENT TYPE   11 IS SOLID187. IT IS NOT ASSOCIATED WITH FULLY INCOMPRESSIBLE
 HYPERELASTIC MATERIALS. NO SUGGESTION IS AVAILABLE AND NO RESETTING IS NEEDED.

 ELEMENT TYPE   12 IS SOLID187. IT IS NOT ASSOCIATED WITH FULLY INCOMPRESSIBLE
 HYPERELASTIC MATERIALS. NO SUGGESTION IS AVAILABLE AND NO RESETTING IS NEEDED.

 ELEMENT TYPE   13 IS SOLID187. IT IS NOT ASSOCIATED WITH FULLY INCOMPRESSIBLE
 HYPERELASTIC MATERIALS. NO SUGGESTION IS AVAILABLE AND NO RESETTING IS NEEDED.



 *** ANSYS - ENGINEERING ANALYSIS SYSTEM  RELEASE Release 17.2     17.2     ***
 DISTRIBUTED ANSYS Multiphysics                                

 00000000  VERSION=WINDOWS x64   20:21:29  MAY 28, 2021 CP=      1.922

 unsaved_project--Static Structural (B5)                                       



                       S O L U T I O N   O P T I O N S

   PROBLEM DIMENSIONALITY. . . . . . . . . . . . .3-D                  
   DEGREES OF FREEDOM. . . . . . UX   UY   UZ   ROTX ROTY ROTZ
   ANALYSIS TYPE . . . . . . . . . . . . . . . . .STATIC (STEADY-STATE)
   OFFSET TEMPERATURE FROM ABSOLUTE ZERO . . . . .  273.15    
   EQUATION SOLVER OPTION. . . . . . . . . . . . .SPARSE             
   NEWTON-RAPHSON OPTION . . . . . . . . . . . . .PROGRAM CHOSEN   
   GLOBALLY ASSEMBLED MATRIX . . . . . . . . . . .SYMMETRIC  

 *** WARNING ***                         CP =       2.016   TIME= 20:21:29
 Material number 82 (used by element 50611 ) should normally have at     
 least one MP or one TB type command associated with it.  Output of      
 energy by material may not be available.                                

 *** NOTE ***                            CP =       2.391   TIME= 20:21:29
 The step data was checked and warning messages were found.              
  Please review output or errors file (                                  
 C:\Users\VISHAL\AppData\Local\Temp\WB_LAPTOP-VISHAL_VISHAL_2428_2\_Proj 
 jectScratch\Scr3E25\file0.err ) for these warning messages.             

 *** NOTE ***                            CP =       2.391   TIME= 20:21:29
 This nonlinear analysis defaults to using the full Newton-Raphson       
 solution procedure.  This can be modified using the NROPT command.      

 *** NOTE ***                            CP =       2.547   TIME= 20:21:29
 Internal nodes from 89986 to 90039 are created.                         
 21 internal nodes are used for handling degrees of freedom on pilot     
 nodes of rigid target surfaces.                                         
 33 internal nodes are used for non-contact elements with mixed          
 formulation.                                                            

 *** NOTE ***                            CP =       2.688   TIME= 20:21:29
 Internal nodes from 89986 to 90039 are created.                         
 21 internal nodes are used for handling degrees of freedom on pilot     
 nodes of rigid target surfaces.                                         
 33 internal nodes are used for non-contact elements with mixed          
 formulation.                                                            

 *** NOTE ***                            CP =       3.109   TIME= 20:21:29
 It is highly recommended to use the auto contact setting option by      
 issuing CNCHECK,AUTO command for this problem in order to achieve       
 better convergence.                                                     

 *** NOTE ***                            CP =       3.109   TIME= 20:21:29
 Symmetric Deformable- deformable contact pair identified by real        
 constant set 14 and contact element type 14 has been set up.  The       
 companion pair has real constant set ID 15.  Both pairs should have     
 the same behavior.                                                      
 ANSYS will deactivate the current pair and keep its companion pair,     
 resulting in asymmetric contact.                                        
 Contact algorithm: Augmented Lagrange method
 Contact detection at: Gauss integration point
 Contact stiffness factor FKN                  10.000    
 The resulting initial contact stiffness      0.12818E+07
 Default penetration tolerance factor FTOLN   0.10000    
 The resulting penetration tolerance           1.1078    
 Default opening contact stiffness OPSF will be used.
 Default tangent stiffness factor FKT          1.0000    
 Default elastic slip factor SLTOL            0.50000E-02
 The resulting elastic slip                   0.96885E-01
 Update contact stiffness at each iteration
 Default Max. friction stress TAUMAX          0.10000E+21
 Average contact surface length                19.377    
 Average contact pair depth                    11.078    
 Default pinball region factor PINB           0.25000    
 The resulting pinball region                  2.7696    
 Initial penetration/gap is excluded.
 Bonded contact (always) is defined.

 *** NOTE ***                            CP =       3.109   TIME= 20:21:29
 Max.  Initial penetration 4.263256415E-14 was detected between contact  
 element 50701 and target element 50780.                                 
 ****************************************
  

 *** NOTE ***                            CP =       3.109   TIME= 20:21:29
 Symmetric Deformable- deformable contact pair identified by real        
 constant set 15 and contact element type 14 has been set up.  The       
 companion pair has real constant set ID 14.  Both pairs should have     
 the same behavior.                                                      
 ANSYS will keep the current pair and deactivate its companion pair,     
 resulting in asymmetric contact.                                        
 Contact algorithm: Augmented Lagrange method
 Contact detection at: Gauss integration point
 Contact stiffness factor FKN                  10.000    
 The resulting initial contact stiffness      0.12818E+07
 Default penetration tolerance factor FTOLN   0.10000    
 The resulting penetration tolerance          0.64307    
 Default opening contact stiffness OPSF will be used.
 Default tangent stiffness factor FKT          1.0000    
 Default elastic slip factor SLTOL            0.50000E-02
 The resulting elastic slip                   0.83652E-01
 Update contact stiffness at each iteration
 Default Max. friction stress TAUMAX          0.10000E+21
 Average contact surface length                16.730    
 Average contact pair depth                    6.4307    
 Default pinball region factor PINB           0.25000    
 The resulting pinball region                  1.6077    
 Initial penetration/gap is excluded.
 Bonded contact (always) is defined.

 *** NOTE ***                            CP =       3.109   TIME= 20:21:29
 Max.  Initial penetration 1.421085472E-14 was detected between contact  
 element 50714 and target element 50658.                                 
 ****************************************
  

 *** NOTE ***                            CP =       3.109   TIME= 20:21:29
 Symmetric Deformable- deformable contact pair identified by real        
 constant set 16 and contact element type 16 has been set up.  The       
 companion pair has real constant set ID 17.  Both pairs should have     
 the same behavior.                                                      
 ANSYS will deactivate the current pair and keep its companion pair,     
 resulting in asymmetric contact.                                        
 Contact algorithm: Augmented Lagrange method
 Contact detection at: Gauss integration point
 Contact stiffness factor FKN                  10.000    
 The resulting initial contact stiffness      0.11533E+07
 Default penetration tolerance factor FTOLN   0.10000    
 The resulting penetration tolerance           1.2313    
 Default opening contact stiffness OPSF will be used.
 Default tangent stiffness factor FKT          1.0000    
 Default elastic slip factor SLTOL            0.50000E-02
 The resulting elastic slip                   0.96568E-01
 Update contact stiffness at each iteration
 Default Max. friction stress TAUMAX          0.10000E+21
 Average contact surface length                19.314    
 Average contact pair depth                    12.313    
 Default pinball region factor PINB           0.25000    
 The resulting pinball region                  3.0782    
 Initial penetration/gap is excluded.
 Bonded contact (always) is defined.

 *** NOTE ***                            CP =       3.109   TIME= 20:21:29
 Max.  Initial penetration 2.842170943E-14 was detected between contact  
 element 50847 and target element 50919.                                 
 ****************************************
  

 *** NOTE ***                            CP =       3.109   TIME= 20:21:29
 Symmetric Deformable- deformable contact pair identified by real        
 constant set 17 and contact element type 16 has been set up.  The       
 companion pair has real constant set ID 16.  Both pairs should have     
 the same behavior.                                                      
 ANSYS will keep the current pair and deactivate its companion pair,     
 resulting in asymmetric contact.                                        
 Contact algorithm: Augmented Lagrange method
 Contact detection at: Gauss integration point
 Contact stiffness factor FKN                  10.000    
 The resulting initial contact stiffness      0.11533E+07
 Default penetration tolerance factor FTOLN   0.10000    
 The resulting penetration tolerance          0.70133    
 Default opening contact stiffness OPSF will be used.
 Default tangent stiffness factor FKT          1.0000    
 Default elastic slip factor SLTOL            0.50000E-02
 The resulting elastic slip                   0.83329E-01
 Update contact stiffness at each iteration
 Default Max. friction stress TAUMAX          0.10000E+21
 Average contact surface length                16.666    
 Average contact pair depth                    7.0133    
 Default pinball region factor PINB           0.25000    
 The resulting pinball region                  1.7533    
 Initial penetration/gap is excluded.
 Bonded contact (always) is defined.

 *** NOTE ***                            CP =       3.109   TIME= 20:21:29
 Max.  Initial penetration 2.842170943E-14 was detected between contact  
 element 50887 and target element 50835.                                 
 ****************************************
  

 *** NOTE ***                            CP =       3.109   TIME= 20:21:29
 Symmetric Deformable- deformable contact pair identified by real        
 constant set 18 and contact element type 18 has been set up.  The       
 companion pair has real constant set ID 19.  Both pairs should have     
 the same behavior.                                                      
 ANSYS will deactivate the current pair and keep its companion pair,     
 resulting in asymmetric contact.                                        
 Contact algorithm: Augmented Lagrange method
 Contact detection at: Gauss integration point
 Contact stiffness factor FKN                  10.000    
 The resulting initial contact stiffness      0.13142E+07
 Default penetration tolerance factor FTOLN   0.10000    
 The resulting penetration tolerance           1.0805    
 Default opening contact stiffness OPSF will be used.
 Default tangent stiffness factor FKT          1.0000    
 Default elastic slip factor SLTOL            0.50000E-02
 The resulting elastic slip                   0.85010E-01
 Update contact stiffness at each iteration
 Default Max. friction stress TAUMAX          0.10000E+21
 Average contact surface length                17.002    
 Average contact pair depth                    10.805    
 Default pinball region factor PINB           0.25000    
 The resulting pinball region                  2.7012    
 Initial penetration/gap is excluded.
 Bonded contact (always) is defined.

 *** NOTE ***                            CP =       3.109   TIME= 20:21:29
 Max.  Initial penetration 4.263256415E-14 was detected between contact  
 element 51028 and target element 51180.                                 
 ****************************************
  

 *** NOTE ***                            CP =       3.109   TIME= 20:21:29
 Symmetric Deformable- deformable contact pair identified by real        
 constant set 19 and contact element type 18 has been set up.  The       
 companion pair has real constant set ID 18.  Both pairs should have     
 the same behavior.                                                      
 ANSYS will keep the current pair and deactivate its companion pair,     
 resulting in asymmetric contact.                                        
 Contact algorithm: Augmented Lagrange method
 Contact detection at: Gauss integration point
 Contact stiffness factor FKN                  10.000    
 The resulting initial contact stiffness      0.13142E+07
 Default penetration tolerance factor FTOLN   0.10000    
 The resulting penetration tolerance          0.63702    
 Default opening contact stiffness OPSF will be used.
 Default tangent stiffness factor FKT          1.0000    
 Default elastic slip factor SLTOL            0.50000E-02
 The resulting elastic slip                   0.76155E-01
 Update contact stiffness at each iteration
 Default Max. friction stress TAUMAX          0.10000E+21
 Average contact surface length                15.231    
 Average contact pair depth                    6.3702    
 Default pinball region factor PINB           0.25000    
 The resulting pinball region                  1.5925    
 Initial penetration/gap is excluded.
 Bonded contact (always) is defined.

 *** NOTE ***                            CP =       3.109   TIME= 20:21:29
 Max.  Initial penetration 2.842170943E-14 was detected between contact  
 element 51086 and target element 50996.                                 
 ****************************************
  

 *** NOTE ***                            CP =       3.109   TIME= 20:21:29
 Symmetric Deformable- deformable contact pair identified by real        
 constant set 20 and contact element type 20 has been set up.  The       
 companion pair has real constant set ID 21.  Both pairs should have     
 the same behavior.                                                      
 ANSYS will keep the current pair and deactivate its companion pair,     
 resulting in asymmetric contact.                                        
 Contact algorithm: Augmented Lagrange method
 Contact detection at: Gauss integration point
 Contact stiffness factor FKN                  10.000    
 The resulting initial contact stiffness      0.45593E+06
 Default penetration tolerance factor FTOLN   0.10000    
 The resulting penetration tolerance           1.8693    
 Default opening contact stiffness OPSF will be used.
 Default tangent stiffness factor FKT          1.0000    
 Default elastic slip factor SLTOL            0.50000E-02
 The resulting elastic slip                   0.15114    
 Update contact stiffness at each iteration
 Default Max. friction stress TAUMAX          0.10000E+21
 Average contact surface length                30.228    
 Average contact pair depth                    18.693    
 Default pinball region factor PINB           0.25000    
 The resulting pinball region                  4.6733    
 Initial penetration/gap is excluded.
 Bonded contact (always) is defined.

 *** NOTE ***                            CP =       3.109   TIME= 20:21:29
 Max.  Initial penetration 4.16128E-03 was detected between contact      
 element 51284 and target element 51376.                                 
 You may move entire target surface by : x= -8.231326729E-19, y=         
 -4.16128E-03, z= -6.625749967E-19,to reduce initial penetration.        
 ****************************************
  

 *** NOTE ***                            CP =       3.109   TIME= 20:21:29
 Symmetric Deformable- deformable contact pair identified by real        
 constant set 21 and contact element type 20 has been set up.  The       
 companion pair has real constant set ID 20.  Both pairs should have     
 the same behavior.                                                      
 ANSYS will deactivate the current pair and keep its companion pair,     
 resulting in asymmetric contact.                                        
 Contact algorithm: Augmented Lagrange method
 Contact detection at: Gauss integration point
 Contact stiffness factor FKN                  10.000    
 The resulting initial contact stiffness      0.45593E+06
 Default penetration tolerance factor FTOLN   0.10000    
 The resulting penetration tolerance           3.1145    
 Default opening contact stiffness OPSF will be used.
 Default tangent stiffness factor FKT          1.0000    
 Default elastic slip factor SLTOL            0.50000E-02
 The resulting elastic slip                   0.22936    
 Update contact stiffness at each iteration
 Default Max. friction stress TAUMAX          0.10000E+21
 Average contact surface length                45.872    
 Average contact pair depth                    31.145    
 Default pinball region factor PINB           0.25000    
 The resulting pinball region                  7.7862    
 Initial penetration/gap is excluded.
 Bonded contact (always) is defined.

 *** NOTE ***                            CP =       3.109   TIME= 20:21:29
 Max.  Initial penetration 4.16128E-03 was detected between contact      
 element 51324 and target element 51196.                                 
 You may move entire target surface by : x= 7.749591694E-19, y=          
 4.16128E-03, z= -6.55734678E-19,to reduce initial penetration.          
 ****************************************
  

 *** NOTE ***                            CP =       3.109   TIME= 20:21:29
 Symmetric Deformable- deformable contact pair identified by real        
 constant set 22 and contact element type 22 has been set up.  The       
 companion pair has real constant set ID 23.  Both pairs should have     
 the same behavior.                                                      
 ANSYS will deactivate the current pair and keep its companion pair,     
 resulting in asymmetric contact.                                        
 Contact algorithm: Augmented Lagrange method
 Contact detection at: Gauss integration point
 Contact stiffness factor FKN                  10.000    
 The resulting initial contact stiffness      0.84269E+06
 Default penetration tolerance factor FTOLN   0.10000    
 The resulting penetration tolerance           1.6851    
 Default opening contact stiffness OPSF will be used.
 Default tangent stiffness factor FKT          1.0000    
 Default elastic slip factor SLTOL            0.50000E-02
 The resulting elastic slip                   0.16681    
 Update contact stiffness at each iteration
 Default Max. friction stress TAUMAX          0.10000E+21
 Average contact surface length                33.363    
 Average contact pair depth                    16.851    
 Default pinball region factor PINB           0.25000    
 The resulting pinball region                  4.2127    
 Initial penetration/gap is excluded.
 Bonded contact (always) is defined.

 *** NOTE ***                            CP =       3.109   TIME= 20:21:29
 Max.  Initial penetration 4.000000672E-06 was detected between contact  
 element 51400 and target element 51512.                                 
 ****************************************
  

 *** NOTE ***                            CP =       3.109   TIME= 20:21:29
 Symmetric Deformable- deformable contact pair identified by real        
 constant set 23 and contact element type 22 has been set up.  The       
 companion pair has real constant set ID 22.  Both pairs should have     
 the same behavior.                                                      
 ANSYS will keep the current pair and deactivate its companion pair,     
 resulting in asymmetric contact.                                        
 Contact algorithm: Augmented Lagrange method
 Contact detection at: Gauss integration point
 Contact stiffness factor FKN                  10.000    
 The resulting initial contact stiffness      0.84269E+06
 Default penetration tolerance factor FTOLN   0.10000    
 The resulting penetration tolerance          0.47353    
 Default opening contact stiffness OPSF will be used.
 Default tangent stiffness factor FKT          1.0000    
 Default elastic slip factor SLTOL            0.50000E-02
 The resulting elastic slip                   0.58836E-01
 Update contact stiffness at each iteration
 Default Max. friction stress TAUMAX          0.10000E+21
 Average contact surface length                11.767    
 Average contact pair depth                    4.7353    
 Default pinball region factor PINB           0.25000    
 The resulting pinball region                  1.1838    
 Initial penetration/gap is excluded.
 Bonded contact (always) is defined.

 *** NOTE ***                            CP =       3.109   TIME= 20:21:29
 Max.  Initial penetration 4.000000217E-06 was detected between contact  
 element 51406 and target element 51384.                                 
 ****************************************
  

 *** NOTE ***                            CP =       3.109   TIME= 20:21:29
 Symmetric Deformable- deformable contact pair identified by real        
 constant set 24 and contact element type 24 has been set up.  The       
 companion pair has real constant set ID 25.  Both pairs should have     
 the same behavior.                                                      
 ANSYS will keep the current pair and deactivate its companion pair,     
 resulting in asymmetric contact.                                        
 Contact algorithm: Augmented Lagrange method
 Contact detection at: Gauss integration point
 Contact stiffness factor FKN                  10.000    
 The resulting initial contact stiffness      0.12027E+07
 Default penetration tolerance factor FTOLN   0.10000    
 The resulting penetration tolerance          0.95728    
 Default opening contact stiffness OPSF will be used.
 Default tangent stiffness factor FKT          1.0000    
 Default elastic slip factor SLTOL            0.50000E-02
 The resulting elastic slip                   0.89078E-01
 Update contact stiffness at each iteration
 Default Max. friction stress TAUMAX          0.10000E+21
 Average contact surface length                17.816    
 Average contact pair depth                    9.5728    
 Default pinball region factor PINB           0.25000    
 The resulting pinball region                  2.3932    
 Initial penetration/gap is excluded.
 Bonded contact (always) is defined.

 *** NOTE ***                            CP =       3.109   TIME= 20:21:29
 Max.  Initial penetration 6.541050368E-09 was detected between contact  
 element 51920 and target element 52091.                                 
  
 Max.  Geometric gap 3.00000054 has been detected between contact        
 element 51836 and target element 52076.                                 
 *WARNING*: The geometric gap/penetration is larger than the pair based  
 pinball.  Please verify the pinball radius carefully.                   
 *WARNING*: The geometric gap/penetration may be too large.  Increase    
 pinball radius if it is a true geometric gap/penetration.  Decrease     
 pinball if it is a false one.                                           
 ****************************************
  

 *** NOTE ***                            CP =       3.109   TIME= 20:21:29
 Symmetric Deformable- deformable contact pair identified by real        
 constant set 25 and contact element type 24 has been set up.  The       
 companion pair has real constant set ID 24.  Both pairs should have     
 the same behavior.                                                      
 ANSYS will deactivate the current pair and keep its companion pair,     
 resulting in asymmetric contact.                                        
 Contact algorithm: Augmented Lagrange method
 Contact detection at: Gauss integration point
 Contact stiffness factor FKN                  10.000    
 The resulting initial contact stiffness      0.12027E+07
 Default penetration tolerance factor FTOLN   0.10000    
 The resulting penetration tolerance           1.1807    
 Default opening contact stiffness OPSF will be used.
 Default tangent stiffness factor FKT          1.0000    
 Default elastic slip factor SLTOL            0.50000E-02
 The resulting elastic slip                   0.10711    
 Update contact stiffness at each iteration
 Default Max. friction stress TAUMAX          0.10000E+21
 Average contact surface length                21.422    
 Average contact pair depth                    11.807    
 Default pinball region factor PINB           0.25000    
 The resulting pinball region                  2.9516    
 Initial penetration/gap is excluded.
 Bonded contact (always) is defined.

 *** NOTE ***                            CP =       3.109   TIME= 20:21:29
 Max.  Initial penetration 4.10206269E-09 was detected between contact   
 element 51932 and target element 51600.                                 
 ****************************************
  

 *** NOTE ***                            CP =       3.109   TIME= 20:21:29
 Symmetric Deformable- deformable contact pair identified by real        
 constant set 26 and contact element type 26 has been set up.  The       
 companion pair has real constant set ID 27.  Both pairs should have     
 the same behavior.                                                      
 ANSYS will deactivate the current pair and keep its companion pair,     
 resulting in asymmetric contact.                                        
 Contact algorithm: Augmented Lagrange method
 Contact detection at: Gauss integration point
 Contact stiffness factor FKN                  10.000    
 The resulting initial contact stiffness      0.38008E+06
 Default penetration tolerance factor FTOLN   0.10000    
 The resulting penetration tolerance           3.7360    
 Default opening contact stiffness OPSF will be used.
 Default tangent stiffness factor FKT          1.0000    
 Default elastic slip factor SLTOL            0.50000E-02
 The resulting elastic slip                   0.30475    
 Update contact stiffness at each iteration
 Default Max. friction stress TAUMAX          0.10000E+21
 Average contact surface length                60.950    
 Average contact pair depth                    37.360    
 Default pinball region factor PINB           0.25000    
 The resulting pinball region                  9.3401    
 Initial penetration/gap is excluded.
 Bonded contact (always) is defined.

 *** NOTE ***                            CP =       3.109   TIME= 20:21:29
 Max.  Initial penetration 1.705302566E-13 was detected between contact  
 element 52247 and target element 52619.                                 
  
 Max.  Geometric gap 3.0765014 has been detected between contact element 
 52300 and target element 52849.                                         
 ****************************************
  

 *** NOTE ***                            CP =       3.109   TIME= 20:21:29
 Symmetric Deformable- deformable contact pair identified by real        
 constant set 27 and contact element type 26 has been set up.  The       
 companion pair has real constant set ID 26.  Both pairs should have     
 the same behavior.                                                      
 ANSYS will keep the current pair and deactivate its companion pair,     
 resulting in asymmetric contact.                                        
 Contact algorithm: Augmented Lagrange method
 Contact detection at: Gauss integration point
 Contact stiffness factor FKN                  10.000    
 The resulting initial contact stiffness      0.38008E+06
 Default penetration tolerance factor FTOLN   0.10000    
 The resulting penetration tolerance           1.4468    
 Default opening contact stiffness OPSF will be used.
 Default tangent stiffness factor FKT          1.0000    
 Default elastic slip factor SLTOL            0.50000E-02
 The resulting elastic slip                   0.20995    
 Update contact stiffness at each iteration
 Default Max. friction stress TAUMAX          0.10000E+21
 Average contact surface length                41.989    
 Average contact pair depth                    14.468    
 Default pinball region factor PINB           0.25000    
 The resulting pinball region                  3.6171    
 Initial penetration/gap is excluded.
 Bonded contact (always) is defined.

 *** NOTE ***                            CP =       3.109   TIME= 20:21:29
 Max.  Initial penetration 1.136868377E-13 was detected between contact  
 element 52367 and target element 52139.                                 
  
 Max.  Geometric gap 3.0765014 has been detected between contact element 
 52556 and target element 52167.                                         
 *WARNING*: The geometric gap/penetration may be too large.  Increase    
 pinball radius if it is a true geometric gap/penetration.  Decrease     
 pinball if it is a false one.                                           
 ****************************************
  

 *** NOTE ***                            CP =       3.109   TIME= 20:21:29
 Symmetric Deformable- deformable contact pair identified by real        
 constant set 28 and contact element type 28 has been set up.  The       
 companion pair has real constant set ID 29.  Both pairs should have     
 the same behavior.                                                      
 ANSYS will deactivate the current pair and keep its companion pair,     
 resulting in asymmetric contact.                                        
 Contact algorithm: Augmented Lagrange method
 Contact detection at: Gauss integration point
 Contact stiffness factor FKN                  10.000    
 The resulting initial contact stiffness      0.80922E+06
 Default penetration tolerance factor FTOLN   0.10000    
 The resulting penetration tolerance           1.7548    
 Default opening contact stiffness OPSF will be used.
 Default tangent stiffness factor FKT          1.0000    
 Default elastic slip factor SLTOL            0.50000E-02
 The resulting elastic slip                   0.12541    
 Update contact stiffness at each iteration
 Default Max. friction stress TAUMAX          0.10000E+21
 Average contact surface length                25.082    
 Average contact pair depth                    17.548    
 Default pinball region factor PINB           0.25000    
 The resulting pinball region                  4.3869    
 Initial penetration/gap is excluded.
 Bonded contact (always) is defined.

 *** NOTE ***                            CP =       3.109   TIME= 20:21:29
 Max.  Initial penetration 7.105427358E-15 was detected between contact  
 element 53079 and target element 53602.                                 
  
 Max.  Geometric gap 4.53057831 has been detected between contact        
 element 53062 and target element 53459.                                 
 *WARNING*: The geometric gap/penetration is larger than the pair based  
 pinball.  Please verify the pinball radius carefully.                   
 *WARNING*: The geometric gap/penetration may be too large.  Increase    
 pinball radius if it is a true geometric gap/penetration.  Decrease     
 pinball if it is a false one.                                           
 ****************************************
  

 *** NOTE ***                            CP =       3.109   TIME= 20:21:29
 Symmetric Deformable- deformable contact pair identified by real        
 constant set 29 and contact element type 28 has been set up.  The       
 companion pair has real constant set ID 28.  Both pairs should have     
 the same behavior.                                                      
 ANSYS will keep the current pair and deactivate its companion pair,     
 resulting in asymmetric contact.                                        
 Contact algorithm: Augmented Lagrange method
 Contact detection at: Gauss integration point
 Contact stiffness factor FKN                  10.000    
 The resulting initial contact stiffness      0.80922E+06
 Default penetration tolerance factor FTOLN   0.10000    
 The resulting penetration tolerance          0.94843    
 Default opening contact stiffness OPSF will be used.
 Default tangent stiffness factor FKT          1.0000    
 Default elastic slip factor SLTOL            0.50000E-02
 The resulting elastic slip                   0.76908E-01
 Update contact stiffness at each iteration
 Default Max. friction stress TAUMAX          0.10000E+21
 Average contact surface length                15.382    
 Average contact pair depth                    9.4843    
 Default pinball region factor PINB           0.25000    
 The resulting pinball region                  2.3711    
 Initial penetration/gap is excluded.
 Bonded contact (always) is defined.

 *** NOTE ***                            CP =       3.109   TIME= 20:21:29
 Max.  Initial penetration 2.131628207E-14 was detected between contact  
 element 53316 and target element 52981.                                 
  
 Max.  Geometric gap 4.35000005 has been detected between contact        
 element 53175 and target element 52930.                                 
 *WARNING*: The geometric gap/penetration is larger than the pair based  
 pinball.  Please verify the pinball radius carefully.                   
 *WARNING*: The geometric gap/penetration may be too large.  Increase    
 pinball radius if it is a true geometric gap/penetration.  Decrease     
 pinball if it is a false one.                                           
 ****************************************
  

 *** NOTE ***                            CP =       3.109   TIME= 20:21:29
 Symmetric Deformable- deformable contact pair identified by real        
 constant set 30 and contact element type 30 has been set up.  The       
 companion pair has real constant set ID 31.  Both pairs should have     
 the same behavior.                                                      
 ANSYS will keep the current pair and deactivate its companion pair,     
 resulting in asymmetric contact.                                        
 Contact algorithm: Augmented Lagrange method
 Contact detection at: Gauss integration point
 Contact stiffness factor FKN                  10.000    
 The resulting initial contact stiffness      0.58072E+06
 Default penetration tolerance factor FTOLN   0.10000    
 The resulting penetration tolerance           1.9071    
 Default opening contact stiffness OPSF will be used.
 Default tangent stiffness factor FKT          1.0000    
 Default elastic slip factor SLTOL            0.50000E-02
 The resulting elastic slip                   0.15079    
 Update contact stiffness at each iteration
 Default Max. friction stress TAUMAX          0.10000E+21
 Average contact surface length                30.158    
 Average contact pair depth                    19.071    
 Default pinball region factor PINB           0.25000    
 The resulting pinball region                  4.7678    
 Initial penetration/gap is excluded.
 Bonded contact (always) is defined.

 *** NOTE ***                            CP =       3.109   TIME= 20:21:29
 Max.  Initial penetration 7.6599E-03 was detected between contact       
 element 53747 and target element 53853.                                 
 You may move entire target surface by : x= 2.111056685E-17, y=          
 1.37550446E-17, z= -7.6599E-03,to reduce initial penetration.           
 ****************************************
  

 *** NOTE ***                            CP =       3.109   TIME= 20:21:29
 Symmetric Deformable- deformable contact pair identified by real        
 constant set 31 and contact element type 30 has been set up.  The       
 companion pair has real constant set ID 30.  Both pairs should have     
 the same behavior.                                                      
 ANSYS will deactivate the current pair and keep its companion pair,     
 resulting in asymmetric contact.                                        
 Contact algorithm: Augmented Lagrange method
 Contact detection at: Gauss integration point
 Contact stiffness factor FKN                  10.000    
 The resulting initial contact stiffness      0.58072E+06
 Default penetration tolerance factor FTOLN   0.10000    
 The resulting penetration tolerance           2.4452    
 Default opening contact stiffness OPSF will be used.
 Default tangent stiffness factor FKT          1.0000    
 Default elastic slip factor SLTOL            0.50000E-02
 The resulting elastic slip                   0.22936    
 Update contact stiffness at each iteration
 Default Max. friction stress TAUMAX          0.10000E+21
 Average contact surface length                45.872    
 Average contact pair depth                    24.452    
 Default pinball region factor PINB           0.25000    
 The resulting pinball region                  6.1131    
 Initial penetration/gap is excluded.
 Bonded contact (always) is defined.

 *** NOTE ***                            CP =       3.109   TIME= 20:21:29
 Max.  Initial penetration 7.6599E-03 was detected between contact       
 element 53818 and target element 53732.                                 
 You may move entire target surface by : x= -1.031471747E-17, y=         
 2.095911543E-17, z= 7.6599E-03,to reduce initial penetration.           
 ****************************************
  

 *** NOTE ***                            CP =       3.109   TIME= 20:21:29
 Symmetric Deformable- deformable contact pair identified by real        
 constant set 32 and contact element type 32 has been set up.  The       
 companion pair has real constant set ID 33.  Both pairs should have     
 the same behavior.                                                      
 ANSYS will deactivate the current pair and keep its companion pair,     
 resulting in asymmetric contact.                                        
 Contact algorithm: Augmented Lagrange method
 Contact detection at: Gauss integration point
 Contact stiffness factor FKN                  10.000    
 The resulting initial contact stiffness      0.53432E+06
 Default penetration tolerance factor FTOLN   0.10000    
 The resulting penetration tolerance           2.3564    
 Default opening contact stiffness OPSF will be used.
 Default tangent stiffness factor FKT          1.0000    
 Default elastic slip factor SLTOL            0.50000E-02
 The resulting elastic slip                   0.28356    
 Update contact stiffness at each iteration
 Default Max. friction stress TAUMAX          0.10000E+21
 Average contact surface length                56.712    
 Average contact pair depth                    23.564    
 Default pinball region factor PINB           0.25000    
 The resulting pinball region                  5.8911    
 Initial penetration/gap is excluded.
 Bonded contact (always) is defined.

 *** NOTE ***                            CP =       3.109   TIME= 20:21:29
 Max.  Initial penetration 2.842170943E-14 was detected between contact  
 element 53893 and target element 53944.                                 
 ****************************************
  

 *** NOTE ***                            CP =       3.109   TIME= 20:21:29
 Symmetric Deformable- deformable contact pair identified by real        
 constant set 33 and contact element type 32 has been set up.  The       
 companion pair has real constant set ID 32.  Both pairs should have     
 the same behavior.                                                      
 ANSYS will keep the current pair and deactivate its companion pair,     
 resulting in asymmetric contact.                                        
 Contact algorithm: Augmented Lagrange method
 Contact detection at: Gauss integration point
 Contact stiffness factor FKN                  10.000    
 The resulting initial contact stiffness      0.53432E+06
 Default penetration tolerance factor FTOLN   0.10000    
 The resulting penetration tolerance           2.6576    
 Default opening contact stiffness OPSF will be used.
 Default tangent stiffness factor FKT          1.0000    
 Default elastic slip factor SLTOL            0.50000E-02
 The resulting elastic slip                   0.25479    
 Update contact stiffness at each iteration
 Default Max. friction stress TAUMAX          0.10000E+21
 Average contact surface length                50.958    
 Average contact pair depth                    26.576    
 Default pinball region factor PINB           0.25000    
 The resulting pinball region                  6.6439    
 Initial penetration/gap is excluded.
 Bonded contact (always) is defined.

 *** NOTE ***                            CP =       3.109   TIME= 20:21:29
 Max.  Initial penetration 1.421085472E-14 was detected between contact  
 element 53904 and target element 53864.                                 
 ****************************************
  

 *** NOTE ***                            CP =       3.109   TIME= 20:21:29
 Symmetric Deformable- deformable contact pair identified by real        
 constant set 34 and contact element type 34 has been set up.  The       
 companion pair has real constant set ID 35.  Both pairs should have     
 the same behavior.                                                      
 ANSYS will keep the current pair and deactivate its companion pair,     
 resulting in asymmetric contact.                                        
 Contact algorithm: Augmented Lagrange method
 Contact detection at: Gauss integration point
 Contact stiffness factor FKN                  10.000    
 The resulting initial contact stiffness      0.64689E+06
 Default penetration tolerance factor FTOLN   0.10000    
 The resulting penetration tolerance           2.1951    
 Default opening contact stiffness OPSF will be used.
 Default tangent stiffness factor FKT          1.0000    
 Default elastic slip factor SLTOL            0.50000E-02
 The resulting elastic slip                   0.19599    
 Update contact stiffness at each iteration
 Default Max. friction stress TAUMAX          0.10000E+21
 Average contact surface length                39.198    
 Average contact pair depth                    21.951    
 Default pinball region factor PINB           0.25000    
 The resulting pinball region                  5.4878    
 Initial penetration/gap is excluded.
 Bonded contact (always) is defined.

 *** NOTE ***                            CP =       3.109   TIME= 20:21:29
 Max.  Initial penetration 1.136868377E-13 was detected between contact  
 element 53984 and target element 54043.                                 
 ****************************************
  

 *** NOTE ***                            CP =       3.109   TIME= 20:21:29
 Symmetric Deformable- deformable contact pair identified by real        
 constant set 35 and contact element type 34 has been set up.  The       
 companion pair has real constant set ID 34.  Both pairs should have     
 the same behavior.                                                      
 ANSYS will deactivate the current pair and keep its companion pair,     
 resulting in asymmetric contact.                                        
 Contact algorithm: Augmented Lagrange method
 Contact detection at: Gauss integration point
 Contact stiffness factor FKN                  10.000    
 The resulting initial contact stiffness      0.64689E+06
 Default penetration tolerance factor FTOLN   0.10000    
 The resulting penetration tolerance           2.0582    
 Default opening contact stiffness OPSF will be used.
 Default tangent stiffness factor FKT          1.0000    
 Default elastic slip factor SLTOL            0.50000E-02
 The resulting elastic slip                   0.21504    
 Update contact stiffness at each iteration
 Default Max. friction stress TAUMAX          0.10000E+21
 Average contact surface length                43.008    
 Average contact pair depth                    20.582    
 Default pinball region factor PINB           0.25000    
 The resulting pinball region                  5.1455    
 Initial penetration/gap is excluded.
 Bonded contact (always) is defined.

 *** NOTE ***                            CP =       3.109   TIME= 20:21:29
 Max.  Initial penetration 2.273736754E-13 was detected between contact  
 element 54016 and target element 53975.                                 
 ****************************************
  

 *** NOTE ***                            CP =       3.109   TIME= 20:21:29
 Symmetric Deformable- deformable contact pair identified by real        
 constant set 36 and contact element type 36 has been set up.  The       
 companion pair has real constant set ID 37.  Both pairs should have     
 the same behavior.                                                      
 ANSYS will keep the current pair and deactivate its companion pair,     
 resulting in asymmetric contact.                                        
 Contact algorithm: Augmented Lagrange method
 Contact detection at: Gauss integration point
 Contact stiffness factor FKN                  10.000    
 The resulting initial contact stiffness      0.81417E+06
 Default penetration tolerance factor FTOLN   0.10000    
 The resulting penetration tolerance           1.5484    
 Default opening contact stiffness OPSF will be used.
 Default tangent stiffness factor FKT          1.0000    
 Default elastic slip factor SLTOL            0.50000E-02
 The resulting elastic slip                   0.19514    
 Update contact stiffness at each iteration
 Default Max. friction stress TAUMAX          0.10000E+21
 Average contact surface length                39.027    
 Average contact pair depth                    15.484    
 Default pinball region factor PINB           0.25000    
 The resulting pinball region                  3.8711    
 Initial penetration/gap is excluded.
 Bonded contact (always) is defined.

 *** NOTE ***                            CP =       3.109   TIME= 20:21:29
 Max.  Initial penetration 4.263256415E-14 was detected between contact  
 element 54125 and target element 54148.                                 
 ****************************************
  

 *** NOTE ***                            CP =       3.109   TIME= 20:21:29
 Symmetric Deformable- deformable contact pair identified by real        
 constant set 37 and contact element type 36 has been set up.  The       
 companion pair has real constant set ID 36.  Both pairs should have     
 the same behavior.                                                      
 ANSYS will deactivate the current pair and keep its companion pair,     
 resulting in asymmetric contact.                                        
 Contact algorithm: Augmented Lagrange method
 Contact detection at: Gauss integration point
 Contact stiffness factor FKN                  10.000    
 The resulting initial contact stiffness      0.81417E+06
 Default penetration tolerance factor FTOLN   0.10000    
 The resulting penetration tolerance           1.7441    
 Default opening contact stiffness OPSF will be used.
 Default tangent stiffness factor FKT          1.0000    
 Default elastic slip factor SLTOL            0.50000E-02
 The resulting elastic slip                   0.27217    
 Update contact stiffness at each iteration
 Default Max. friction stress TAUMAX          0.10000E+21
 Average contact surface length                54.435    
 Average contact pair depth                    17.441    
 Default pinball region factor PINB           0.25000    
 The resulting pinball region                  4.3603    
 Initial penetration/gap is excluded.
 Bonded contact (always) is defined.

 *** NOTE ***                            CP =       3.109   TIME= 20:21:29
 Max.  Initial penetration 1.421085472E-14 was detected between contact  
 element 54130 and target element 54077.                                 
 ****************************************
  

 *** NOTE ***                            CP =       3.109   TIME= 20:21:29
 Rigid-constraint surface identified by real constant set 40 and         
 contact element type 40 has been set up.  The degrees of freedom of     
 the rigid surface are driven by the pilot node 89964 which connects to  
 other element 50611.  Internal MPC will be built.                       
 The used degrees of freedom set is  UX   UY   UZ   ROTX ROTY ROTZ
 ****************************************
  

 *** NOTE ***                            CP =       3.109   TIME= 20:21:29
 Rigid-constraint surface identified by real constant set 42 and         
 contact element type 42 has been set up.  The degrees of freedom of     
 the rigid surface are driven by the pilot node 89965 which connects to  
 other element 50611.  Internal MPC will be built.                       
 The used degrees of freedom set is  UX   UY   UZ   ROTX ROTY ROTZ
 ****************************************
  

 *** NOTE ***                            CP =       3.109   TIME= 20:21:29
 Rigid-constraint surface identified by real constant set 44 and         
 contact element type 44 has been set up.  The degrees of freedom of     
 the rigid surface are driven by the pilot node 89966 which connects to  
 other element 50612.  Internal MPC will be built.                       
 The used degrees of freedom set is  UX   UY   UZ   ROTX ROTY ROTZ
 ****************************************
  

 *** NOTE ***                            CP =       3.109   TIME= 20:21:29
 Rigid-constraint surface identified by real constant set 46 and         
 contact element type 46 has been set up.  The degrees of freedom of     
 the rigid surface are driven by the pilot node 89967 which connects to  
 other element 50612.  Internal MPC will be built.                       
 The used degrees of freedom set is  UX   UY   UZ   ROTX ROTY ROTZ
 ****************************************
  

 *** NOTE ***                            CP =       3.109   TIME= 20:21:29
 Rigid-constraint surface identified by real constant set 48 and         
 contact element type 48 has been set up.  The degrees of freedom of     
 the rigid surface are driven by the pilot node 89968 which connects to  
 other element 50613.  Internal MPC will be built.                       
 The used degrees of freedom set is  UX   UY   UZ   ROTX ROTY ROTZ
 ****************************************
  

 *** NOTE ***                            CP =       3.109   TIME= 20:21:29
 Rigid-constraint surface identified by real constant set 50 and         
 contact element type 50 has been set up.  The degrees of freedom of     
 the rigid surface are driven by the pilot node 89969 which connects to  
 other element 50613.  Internal MPC will be built.                       
 The used degrees of freedom set is  UX   UY   UZ   ROTX ROTY ROTZ
 ****************************************
  

 *** NOTE ***                            CP =       3.109   TIME= 20:21:29
 Rigid-constraint surface identified by real constant set 52 and         
 contact element type 52 has been set up.  The degrees of freedom of     
 the rigid surface are driven by the pilot node 89970 which connects to  
 other element 50614.  Internal MPC will be built.                       
 The used degrees of freedom set is  UX   UY   UZ   ROTX ROTY ROTZ
 ****************************************
  

 *** NOTE ***                            CP =       3.109   TIME= 20:21:29
 Rigid-constraint surface identified by real constant set 54 and         
 contact element type 54 has been set up.  The degrees of freedom of     
 the rigid surface are driven by the pilot node 89971 which connects to  
 other element 50614.  Internal MPC will be built.                       
 The used degrees of freedom set is  UX   UY   UZ   ROTX ROTY ROTZ
 ****************************************
  

 *** NOTE ***                            CP =       3.109   TIME= 20:21:29
 Rigid-constraint surface identified by real constant set 56 and         
 contact element type 56 has been set up.  The degrees of freedom of     
 the rigid surface are driven by the pilot node 89972 which connects to  
 other element 50615.  Internal MPC will be built.                       
 The used degrees of freedom set is  UX   UY   UZ   ROTX ROTY ROTZ
 ****************************************
  

 *** NOTE ***                            CP =       3.109   TIME= 20:21:29
 Rigid-constraint surface identified by real constant set 58 and         
 contact element type 58 has been set up.  The degrees of freedom of     
 the rigid surface are driven by the pilot node 89973 which connects to  
 other element 50615.  Internal MPC will be built.                       
 The used degrees of freedom set is  UX   UY   UZ   ROTX ROTY ROTZ
 ****************************************
  

 *** NOTE ***                            CP =       3.109   TIME= 20:21:29
 Rigid-constraint surface identified by real constant set 60 and         
 contact element type 60 has been set up.  The degrees of freedom of     
 the rigid surface are driven by the pilot node 89974 which connects to  
 other element 50616.  Internal MPC will be built.                       
 The used degrees of freedom set is  UX   UY   UZ   ROTX ROTY ROTZ
 ****************************************
  

 *** NOTE ***                            CP =       3.109   TIME= 20:21:29
 Rigid-constraint surface identified by real constant set 62 and         
 contact element type 62 has been set up.  The degrees of freedom of     
 the rigid surface are driven by the pilot node 89975 which connects to  
 other element 50616.  Internal MPC will be built.                       
 The used degrees of freedom set is  UX   UY   UZ   ROTX ROTY ROTZ
 ****************************************
  

 *** NOTE ***                            CP =       3.109   TIME= 20:21:29
 Rigid-constraint surface identified by real constant set 64 and         
 contact element type 64 has been set up.  The degrees of freedom of     
 the rigid surface are driven by the pilot node 89977 which connects to  
 other element 50617.  Internal MPC will be built.                       
 The used degrees of freedom set is  UX   UY   UZ   ROTX ROTY ROTZ
 *WARNING*: Boundary conditions, coupling, and/or constraint equations   
 have been applied on certain contact nodes (for example 13921).         
 ****************************************
  

 *** NOTE ***                            CP =       3.109   TIME= 20:21:29
 Rigid-constraint surface identified by real constant set 66 and         
 contact element type 66 has been set up.  The degrees of freedom of     
 the rigid surface are driven by the pilot node 89978 which connects to  
 other element 50618.  Internal MPC will be built.                       
 The used degrees of freedom set is  UX   UY   UZ   ROTX ROTY ROTZ
 ****************************************
  

 *** NOTE ***                            CP =       3.109   TIME= 20:21:29
 Rigid-constraint surface identified by real constant set 68 and         
 contact element type 68 has been set up.  The degrees of freedom of     
 the rigid surface are driven by the pilot node 89979 which connects to  
 other element 50618.  Internal MPC will be built.                       
 The used degrees of freedom set is  UX   UY   UZ   ROTX ROTY ROTZ
 ****************************************
  

 *** NOTE ***                            CP =       3.109   TIME= 20:21:29
 Rigid-constraint surface identified by real constant set 70 and         
 contact element type 70 has been set up.  The degrees of freedom of     
 the rigid surface are driven by the pilot node 89980 which connects to  
 other element 50619.  Internal MPC will be built.                       
 The used degrees of freedom set is  UX   UY   UZ   ROTX ROTY ROTZ
 ****************************************
  

 *** NOTE ***                            CP =       3.109   TIME= 20:21:29
 Rigid-constraint surface identified by real constant set 72 and         
 contact element type 72 has been set up.  The degrees of freedom of     
 the rigid surface are driven by the pilot node 89981 which connects to  
 other element 50619.  Internal MPC will be built.                       
[...]
     3       600  SOLID187      0.016   0.000026
     4      1052  SOLID187      0.016   0.000015
     5      5468  SOLID187      0.266   0.000049
     6      8627  SOLID187      0.422   0.000049
     7      1962  SOLID187      0.094   0.000048
     8       680  SOLID187      0.047   0.000069
     9      1073  SOLID187      0.062   0.000058
    10      8449  SOLID187      0.406   0.000048
    11      6666  SOLID187      0.312   0.000047
    12      9854  SOLID187      0.469   0.000048
    13      4960  SOLID187      0.297   0.000060
    14        80  CONTA174      0.000   0.000000
    15        80  TARGE170      0.000   0.000000
    16        80  CONTA174      0.000   0.000000
    17        80  TARGE170      0.000   0.000000
    18       112  CONTA174      0.000   0.000000
    19       112  TARGE170      0.000   0.000000
    20        96  CONTA174      0.000   0.000000
    21        96  TARGE170      0.000   0.000000
    22        95  CONTA174      0.016   0.000164
    23        95  TARGE170      0.000   0.000000
    24       271  CONTA174      0.000   0.000000
    25       271  TARGE170      0.000   0.000000
    26       383  CONTA174      0.016   0.000041
    27       383  TARGE170      0.000   0.000000
    28       395  CONTA174      0.016   0.000040
    29       395  TARGE170      0.000   0.000000
    30        94  CONTA174      0.016   0.000166
    31        94  TARGE170      0.000   0.000000
    32        48  CONTA174      0.000   0.000000
    33        48  TARGE170      0.000   0.000000
    34        56  CONTA174      0.000   0.000000
    35        56  TARGE170      0.000   0.000000
    36        51  CONTA174      0.000   0.000000
    37        51  TARGE170      0.000   0.000000
    38        25  SURF154       0.000   0.000000
    39       558  SURF154       0.016   0.000028
    40       102  CONTA174      0.031   0.000306
    41         1  TARGE170      0.000   0.000000
    42       248  CONTA174      0.016   0.000063
    43         1  TARGE170      0.000   0.000000
    44        23  CONTA174      0.000   0.000000
    45         1  TARGE170      0.000   0.000000
    46        28  CONTA174      0.000   0.000000
    47         1  TARGE170      0.000   0.000000
    48        19  CONTA174      0.000   0.000000
    49         1  TARGE170      0.000   0.000000
    50        32  CONTA174      0.000   0.000000
    51         1  TARGE170      0.000   0.000000
    52        25  CONTA174      0.000   0.000000
    53         1  TARGE170      0.000   0.000000
    54        31  CONTA174      0.000   0.000000
    55         1  TARGE170      0.000   0.000000
    56        42  CONTA174      0.000   0.000000
    57         1  TARGE170      0.000   0.000000
    58       102  CONTA174      0.000   0.000000
    59         1  TARGE170      0.000   0.000000
    60        13  CONTA174      0.000   0.000000
    61         1  TARGE170      0.000   0.000000
    62        82  CONTA174      0.000   0.000000
    63         1  TARGE170      0.000   0.000000
    64       248  CONTA174      0.000   0.000000
    65         1  TARGE170      0.000   0.000000
    66        66  CONTA174      0.016   0.000237
    67         1  TARGE170      0.000   0.000000
    68        28  CONTA174      0.000   0.000000
    69         1  TARGE170      0.000   0.000000
    70        68  CONTA174      0.016   0.000230
    71         1  TARGE170      0.000   0.000000
    72        28  CONTA174      0.000   0.000000
    73         1  TARGE170      0.000   0.000000
    74        48  CONTA174      0.000   0.000000
    75         1  TARGE170      0.000   0.000000
    76       102  CONTA174      0.000   0.000000
    77         1  TARGE170      0.000   0.000000
    78       104  CONTA174      0.016   0.000150
    79         1  TARGE170      0.000   0.000000
    80       138  CONTA174      0.000   0.000000
    81         1  TARGE170      0.000   0.000000
    82         1  MPC184        0.000   0.000000
    83         1  MPC184        0.000   0.000000
    84         1  MPC184        0.000   0.000000
    85         1  MPC184        0.000   0.000000
    86         1  MPC184        0.000   0.000000
    87         1  MPC184        0.000   0.000000
    88         1  MPC184        0.000   0.000000
    89         1  MPC184        0.000   0.000000
    90         1  MPC184        0.000   0.000000
    91         1  MPC184        0.000   0.000000
    92         1  MPC184        0.000   0.000000
 Time at end of element matrix formulation CP = 6.359375.                
     FORCE CONVERGENCE VALUE  =  119.3      CRITERION= 0.6087    

 DISTRIBUTED SPARSE MATRIX DIRECT SOLVER.
  Number of equations =      257919,    Maximum wavefront =   4206

 *** NOTE ***                            CP =       6.969   TIME= 20:21:32
 The initial memory allocation (-m) has been exceeded.                   
  Supplemental memory allocations are being used.                        

  Local memory allocated for solver              =    735.430 MB
  Local memory required for in-core solution     =    519.959 MB
  Local memory required for out-of-core solution =    229.615 MB

  Total memory allocated for solver              =   1276.180 MB
  Total memory required for in-core solution     =    909.356 MB
  Total memory required for out-of-core solution =    420.521 MB

 *** NOTE ***                            CP =       7.938   TIME= 20:21:34
 The Distributed Sparse Matrix Solver is currently running in the        
 in-core memory mode.  This memory mode uses the most amount of memory   
 in order to avoid using the hard drive as much as possible, which most  
 often results in the fastest solution time.  This mode is recommended   
 if enough physical memory is present to accommodate all of the solver   
 data.                                                                   

 *** WARNING ***                         CP =       7.938   TIME= 20:21:34
 Pivoting has been activated for the Distributed Sparse Matrix Solver .  
 The memory required may greatly exceed the predicted amount.  In that   
 event, use the DSPOPTION command to change the memory mode and/or       
 memory size used by the Distributed Sparse Matrix Solver.               
 curEqn=  82630  totEqn= 160197 Job CP sec=      9.078
      Factor Done=  51% Factor Wall sec=      0.581 rate=   13291.9 Mflops
 curEqn= 160183  totEqn= 160197 Job CP sec=      9.547
      Factor Done= 100% Factor Wall sec=      1.060 rate=   14338.5 Mflops
 curEqn= 160197  totEqn= 160197 Job CP sec=      9.562
      Factor Done= 100% Factor Wall sec=      1.063 rate=   14309.0 Mflops
 Distributed sparse solver maximum pivot= 8.20867708E+09 at node 51256   
 UX.                                                                     
 Distributed sparse solver minimum pivot= 4523.04428 at node 35895 UY.   
 Distributed sparse solver minimum pivot in absolute value= 4523.04428   
 at node 35895 UY.                                                       
     DISP CONVERGENCE VALUE   = 0.4902E-01  CRITERION= 0.2501E-02

   *** ELEMENT RESULT CALCULATION TIMES
  TYPE    NUMBER   ENAME      TOTAL CP  AVE CP

     1       618  SOLID187      0.016   0.000025
     2       601  SOLID187      0.031   0.000052
     3       600  SOLID187      0.016   0.000026
     4      1052  SOLID187      0.094   0.000089
     5      5468  SOLID187      0.172   0.000031
     6      8627  SOLID187      0.281   0.000033
     7      1962  SOLID187      0.062   0.000032
     8       680  SOLID187      0.000   0.000000
     9      1073  SOLID187      0.031   0.000029
    10      8449  SOLID187      0.328   0.000039
    11      6666  SOLID187      0.266   0.000040
    12      9854  SOLID187      0.297   0.000030
    13      4960  SOLID187      0.250   0.000050
    14        80  CONTA174      0.000   0.000000
    16        80  CONTA174      0.000   0.000000
    18       112  CONTA174      0.000   0.000000
    20        96  CONTA174      0.000   0.000000
    22        95  CONTA174      0.000   0.000000
    24       271  CONTA174      0.016   0.000058
    26       383  CONTA174      0.016   0.000041
    28       395  CONTA174      0.016   0.000040
    30        94  CONTA174      0.000   0.000000
    32        48  CONTA174      0.000   0.000000
    34        56  CONTA174      0.000   0.000000
    36        51  CONTA174      0.000   0.000000
    38        25  SURF154       0.000   0.000000
    39       558  SURF154       0.000   0.000000
    40       102  CONTA174      0.000   0.000000
    42       248  CONTA174      0.000   0.000000
    44        23  CONTA174      0.000   0.000000
    46        28  CONTA174      0.000   0.000000
    48        19  CONTA174      0.000   0.000000
    50        32  CONTA174      0.000   0.000000
    52        25  CONTA174      0.000   0.000000
    54        31  CONTA174      0.000   0.000000
    56        42  CONTA174      0.000   0.000000
    58       102  CONTA174      0.000   0.000000
    60        13  CONTA174      0.000   0.000000
    62        82  CONTA174      0.000   0.000000
    64       248  CONTA174      0.000   0.000000
    66        66  CONTA174      0.000   0.000000
    68        28  CONTA174      0.000   0.000000
    70        68  CONTA174      0.000   0.000000
    72        28  CONTA174      0.000   0.000000
    74        48  CONTA174      0.000   0.000000
    76       102  CONTA174      0.000   0.000000
    78       104  CONTA174      0.000   0.000000
    80       138  CONTA174      0.000   0.000000
    82         1  MPC184        0.000   0.000000
    83         1  MPC184        0.000   0.000000
    84         1  MPC184        0.000   0.000000
    85         1  MPC184        0.000   0.000000
    86         1  MPC184        0.000   0.000000
    87         1  MPC184        0.000   0.000000
    88         1  MPC184        0.000   0.000000
    89         1  MPC184        0.000   0.000000
    90         1  MPC184        0.000   0.000000
    91         1  MPC184        0.000   0.000000
    92         1  MPC184        0.000   0.000000

   *** NODAL LOAD CALCULATION TIMES
  TYPE    NUMBER   ENAME      TOTAL CP  AVE CP

     1       618  SOLID187      0.000   0.000000
     2       601  SOLID187      0.000   0.000000
     3       600  SOLID187      0.000   0.000000
     4      1052  SOLID187      0.000   0.000000
     5      5468  SOLID187      0.000   0.000000
     6      8627  SOLID187      0.031   0.000004
     7      1962  SOLID187      0.000   0.000000
     8       680  SOLID187      0.000   0.000000
     9      1073  SOLID187      0.000   0.000000
    10      8449  SOLID187      0.016   0.000002
    11      6666  SOLID187      0.031   0.000005
    12      9854  SOLID187      0.031   0.000003
    13      4960  SOLID187      0.000   0.000000
    14        80  CONTA174      0.000   0.000000
    16        80  CONTA174      0.000   0.000000
    18       112  CONTA174      0.000   0.000000
    20        96  CONTA174      0.000   0.000000
    22        95  CONTA174      0.000   0.000000
    24       271  CONTA174      0.000   0.000000
    26       383  CONTA174      0.000   0.000000
    28       395  CONTA174      0.000   0.000000
    30        94  CONTA174      0.000   0.000000
    32        48  CONTA174      0.000   0.000000
    34        56  CONTA174      0.000   0.000000
    36        51  CONTA174      0.000   0.000000
    38        25  SURF154       0.000   0.000000
    39       558  SURF154       0.000   0.000000
    40       102  CONTA174      0.000   0.000000
    42       248  CONTA174      0.000   0.000000
    44        23  CONTA174      0.000   0.000000
    46        28  CONTA174      0.000   0.000000
    48        19  CONTA174      0.000   0.000000
    50        32  CONTA174      0.000   0.000000
    52        25  CONTA174      0.000   0.000000
    54        31  CONTA174      0.000   0.000000
    56        42  CONTA174      0.000   0.000000
    58       102  CONTA174      0.000   0.000000
    60        13  CONTA174      0.000   0.000000
    62        82  CONTA174      0.000   0.000000
    64       248  CONTA174      0.000   0.000000
    66        66  CONTA174      0.000   0.000000
    68        28  CONTA174      0.000   0.000000
    70        68  CONTA174      0.000   0.000000
    72        28  CONTA174      0.000   0.000000
    74        48  CONTA174      0.000   0.000000
    76       102  CONTA174      0.000   0.000000
    78       104  CONTA174      0.000   0.000000
    80       138  CONTA174      0.000   0.000000
    82         1  MPC184        0.000   0.000000
    83         1  MPC184        0.000   0.000000
    84         1  MPC184        0.000   0.000000
    85         1  MPC184        0.000   0.000000
    86         1  MPC184        0.000   0.000000
    87         1  MPC184        0.000   0.000000
    88         1  MPC184        0.000   0.000000
    89         1  MPC184        0.000   0.000000
    90         1  MPC184        0.000   0.000000
    91         1  MPC184        0.000   0.000000
    92         1  MPC184        0.000   0.000000
 *** LOAD STEP     1   SUBSTEP     1  COMPLETED.    CUM ITER =      1
 *** TIME =   1.00000         TIME INC =   1.00000      NEW TRIANG MATRIX


 *** ANSYS BINARY FILE STATISTICS
  BUFFER SIZE USED= 16384
        3.125 MB WRITTEN ON ELEMENT MATRIX FILE: file0.emat
       89.875 MB WRITTEN ON ELEMENT SAVED DATA FILE: file0.esav
       76.750 MB WRITTEN ON ASSEMBLED MATRIX FILE: file0.full
       22.188 MB WRITTEN ON RESULTS FILE: file0.rst
 *************** Write FE CONNECTORS *********

 WRITE OUT CONSTRAINT EQUATIONS TO FILE= file.ce                                                                                                                                                                                                                                                             
 ****************************************************
 *************** FINISHED SOLVE FOR LS 1 *************

 PARAMETER _DS_PROGRESS  DELETED.

 *GET  _WALLASOL  FROM  ACTI  ITEM=TIME WALL  VALUE=  20.3602778    

 PRINTOUT RESUMED BY /GOP

 *GET  _PCGITER  FROM  ACTI  ITEM=SOLU CGIT  VALUE= -1.00000000    

 FINISH SOLUTION PROCESSING


 ***** ROUTINE COMPLETED *****  CP =        11.438



 *** ANSYS - ENGINEERING ANALYSIS SYSTEM  RELEASE Release 17.2     17.2     ***
 DISTRIBUTED ANSYS Multiphysics                                

 00000000  VERSION=WINDOWS x64   20:21:38  MAY 28, 2021 CP=     11.438

 unsaved_project--Static Structural (B5)                                       



          ***** ANSYS RESULTS INTERPRETATION (POST1) *****

 *** NOTE ***                            CP =      11.438   TIME= 20:21:38
 Reading results into the database (SET command) will update the current 
 displacement and force boundary conditions in the database with the     
 values from the results file for that load set.  Note that any          
 subsequent solutions will use these values unless action is taken to    
 either SAVE the current values or not overwrite them (/EXIT,NOSAVE).    

 Set Encoding of XML File to:ISO-8859-1

 Set Output of XML File to:
     PARM,     ,     ,     ,     ,     ,     ,     ,     ,     ,     ,     ,
         ,     ,     ,     ,     ,     ,     ,

 DATABASE WRITTEN ON FILE  parm.xml                                                                                                                                                                                                                                                            

 EXIT THE ANSYS POST1 DATABASE PROCESSOR


 ***** ROUTINE COMPLETED *****  CP =        11.453



 PRINTOUT RESUMED BY /GOP

 *GET  _WALLDONE  FROM  ACTI  ITEM=TIME WALL  VALUE=  20.3605556    

 PARAMETER _PREPTIME =     0.000000000    

 PARAMETER _SOLVTIME =     9.000000000    

 PARAMETER _POSTTIME =     1.000000000    

 PARAMETER _TOTALTIM =     10.00000000    

 EXIT ANSYS WITHOUT SAVING DATABASE


 NUMBER OF WARNING MESSAGES ENCOUNTERED=          9
 NUMBER OF ERROR   MESSAGES ENCOUNTERED=          0

+--------- D I S T R I B U T E D   A N S Y S   S T A T I S T I C S ------------+

Release: Release 17.2       Build: 17.2       Update: UP20160718   Platform: WINDOWS x64 
Date Run: 05/28/2021   Time: 20:21
Operating System: Windows 10  (Build: 19043)
Windows Process ID: 11848       

Processor Model: Intel(R) Core(TM) i7-9750H CPU @ 2.60GHz

Compiler: Intel(R) FORTRAN Compiler Version 15.0.2  (Build: 20150121)
          Intel(R) C/C++ Compiler Version 15.0.2  (Build: 20150121)
          Intel(R) Math Kernel Library Version 11.2.3 Product Build 20150413

Number of machines requested            :    1
Total number of cores available         :   12
Number of physical cores available      :    6
Number of processes requested           :    2
Number of threads per process requested :    1
Total number of cores requested         :    2 (Distributed Memory Parallel)               
MPI Type: INTELMPI
MPI Version: Intel(R) MPI Library 5.0 Update 3 for Windows* OS


GPU Acceleration: Not Requested

Job Name: file0
Input File: dummy.dat

  Core                Machine Name   Working Directory
  ----------------------------------------------------
     0               LAPTOP-VISHAL   C:\Users\VISHAL\AppData\Local\Temp\WB_LAPTOP-VISHAL_VISHAL_2428_2\_ProjectScratch\Scr3E25
     1               LAPTOP-VISHAL   C:\Users\VISHAL\AppData\Local\Temp\WB_LAPTOP-VISHAL_VISHAL_2428_2\_ProjectScratch\Scr3E25
 
Latency time from master to core    1 =    1.557 microseconds
 
Communication speed from master to core    1 =  8684.36 MB/sec

Total CPU time for main thread                    :        9.5 seconds
Total CPU time summed for all threads             :       11.5 seconds

Elapsed time spent pre-processing model (/PREP7)  :        0.6 seconds
Elapsed time spent solution - preprocessing       :        1.3 seconds
Elapsed time spent computing solution             :        7.1 seconds
Elapsed time spent solution - postprocessing      :        0.2 seconds
Elapsed time spent post-processing model (/POST1) :        0.0 seconds
 
Equation solver used                              :            Sparse (symmetric)
Equation solver computational rate                :    26720.7 Mflops
Equation solver effective I/O rate                :     9634.1 MB/sec

Maximum total memory used                         :     2076.0 MB
Maximum total memory allocated                    :     4375.0 MB
Maximum total memory available                    :          8 GB

+------ E N D   D I S T R I B U T E D   A N S Y S   S T A T I S T I C S -------+


 *---------------------------------------------------------------------------*
 |                                                                           |
 |                       DISTRIBUTED ANSYS RUN COMPLETED                     |
 |                                                                           |
 |---------------------------------------------------------------------------|
 |                                                                           |
 | Ansys Release 17.2          Build 17.2         UP20160718     WINDOWS x64 |
 |                                                                           |
 |---------------------------------------------------------------------------|
 |                                                                           |
 | Database Requested(-db)  1024 MB    Scratch Memory Requested      1024 MB |
 | Maximum Database Used      69 MB    Maximum Scratch Memory Used   1103 MB |
 |                                                                           |
 |---------------------------------------------------------------------------|
 |                                                                           |
 |        CP Time      (sec) =         11.469       Time  =  20:21:38        |
 |        Elapsed Time (sec) =         12.000       Date  =  05/28/2021      |
 |                                                                           |
 *---------------------------------------------------------------------------*
